/*--------------------------------*- C++ -*----------------------------------*\
  =========                 |
  \\      /  F ield         | OpenFOAM: The Open Source CFD Toolbox
   \\    /   O peration     | Website:  https://openfoam.org
    \\  /    A nd           | Version:  13
     \\/     M anipulation  |
\*---------------------------------------------------------------------------*/
FoamFile
{
    format      ascii;
    class       dictionary;
    location    "system";
    object      controlDict;
}
// * * * * * * * * * * * * * * * * * * * * * * * * * * * * * * * * * * * * * //

solver          incompressibleVoF;

startFrom       latestTime;

startTime       0;

stopAt          endTime;

endTime         5;

deltaT          0.1;

writeControl    adjustableRunTime;

writeInterval   1000;

purgeWrite      1;

writeFormat     binary;

writePrecision  6;

writeCompression off;

timeFormat      general;

timePrecision   6;

runTimeModifiable yes;

adjustTimeStep  yes;

maxCo           50;
maxAlphaCo      50;
maxDeltaT       0.1;

functions
{
    #include "functions"
}

// ************************************************************************* //
