/*--------------------------------*- C++ -*----------------------------------*\
  =========                 |
  \\      /  F ield         | OpenFOAM: The Open Source CFD Toolbox
   \\    /   O peration     | Website:  https://openfoam.org
    \\  /    A nd           | Version:  13
     \\/     M anipulation  |
\*---------------------------------------------------------------------------*/
FoamFile
{
    format      binary;
    class       polyBoundaryMesh;
    location    "constant/polyMesh";
    object      boundary;
}
// * * * * * * * * * * * * * * * * * * * * * * * * * * * * * * * * * * * * * //

2
(
    walls
    {
        type            wall;
        inGroups        List<word> 1(wall);
        nFaces          24956;
        startFace       340735;
    }
    atmosphere
    {
        type            patch;
        nFaces          5292;
        startFace       365691;
    }
)

// ************************************************************************* //
