/*--------------------------------*- C++ -*----------------------------------*\
  =========                 |
  \\      /  F ield         | OpenFOAM: The Open Source CFD Toolbox
   \\    /   O peration     | Website:  https://openfoam.org
    \\  /    A nd           | Version:  13
     \\/     M anipulation  |
\*---------------------------------------------------------------------------*/
FoamFile
{
    format      ascii;
    class       dictionary;
    location    "system";
    object      controlDict;
}
// * * * * * * * * * * * * * * * * * * * * * * * * * * * * * * * * * * * * * //

solver          incompressibleVoF;

startFrom       latestTime;

startTime       0;

stopAt          endTime;

endTime 1;

// Start with a conservative dt to avoid blowing up on the first step.
// `maxDeltaT` still caps the growth (set via the manager's dt parameter).
deltaT          0.0001;

writeControl    adjustableRunTime;

writeInterval   0.25;

purgeWrite      0;

writeFormat     binary;

writePrecision  6;

writeCompression off;

timeFormat      general;

timePrecision   6;

runTimeModifiable yes;

adjustTimeStep  yes;

maxCo           1.0;
maxAlphaCo      0.5;
maxDeltaT       0.001;

functions
{
    #include "functions"
}

// ************************************************************************* //
