/*--------------------------------*- C++ -*----------------------------------*\
  =========                 |
  \\      /  F ield         | OpenFOAM: The Open Source CFD Toolbox
   \\    /   O peration     | Website:  https://openfoam.org
    \\  /    A nd           | Version:  13
     \\/     M anipulation  |
\*---------------------------------------------------------------------------*/
FoamFile
{
    format      ascii;
    class       dictionary;
    location    "system";
    object      functions;
}
// * * * * * * * * * * * * * * * * * * * * * * * * * * * * * * * * * * * * * //

probesU
{
    type            probes;
    libs            ("libsampling.so");
    writeControl    timeStep;
    writeInterval   5;
    fixedLocations  true;
    fields
    (
        U
        alpha.water
    );
    probeLocations
    (
        (0 0 0.002075)
        (0.0018675 0 0.002075)
        (1.1435139e-19 0.0018675 0.002075)
        (-0.0018675 2.2870279e-19 0.002075)
        (-3.4305418e-19 -0.0018675 0.002075)
        (0 0 0.003735)
        (0.0018675 0 0.003735)
        (1.1435139e-19 0.0018675 0.003735)
        (-0.0018675 2.2870279e-19 0.003735)
        (-3.4305418e-19 -0.0018675 0.003735)
        (0 0 0.00415)
        (0.0018675 0 0.00415)
        (1.1435139e-19 0.0018675 0.00415)
        (-0.0018675 2.2870279e-19 0.00415)
        (-3.4305418e-19 -0.0018675 0.00415)
        (0 0 0.004565)
        (0.0018675 0 0.004565)
        (1.1435139e-19 0.0018675 0.004565)
        (-0.0018675 2.2870279e-19 0.004565)
        (-3.4305418e-19 -0.0018675 0.004565)
        (0 0 0.006225)
        (0.0018675 0 0.006225)
        (1.1435139e-19 0.0018675 0.006225)
        (-0.0018675 2.2870279e-19 0.006225)
        (-3.4305418e-19 -0.0018675 0.006225)
    );
}

// ************************************************************************* //
